
     RDKit          3D

 24 26  0  0  0  0  0  0  0  0999 V2000
  -25.7235   30.2710  -42.6667 C   0  0  0  0  0  0  0  0  0  0  0  0
  -23.8695   35.1017  -45.5600 C   0  0  0  0  0  0  0  0  0  0  0  0
  -21.4565   34.8946  -45.9630 C   0  0  0  0  0  0  0  0  0  0  0  0
  -27.6589   36.2776  -43.4896 O   0  0  0  0  0  0  0  0  0  0  0  0
  -22.2106   33.8212  -44.0491 C   0  0  0  0  0  0  0  0  0  0  0  0
  -27.0570   30.2466  -42.7511 C   0  0  0  0  0  0  0  0  0  0  0  0
  -28.2739   33.7189  -43.9624 C   0  0  0  0  0  0  0  0  0  0  0  0
  -27.6932   35.0658  -44.3603 C   0  0  0  0  0  0  0  0  0  0  0  0
  -25.6674   36.2849  -46.9983 C   0  0  0  0  0  0  0  0  0  0  0  0
  -22.2931   30.9191  -43.3634 C   0  0  0  0  0  0  0  0  0  0  0  0
  -27.8905   31.4219  -43.1036 C   0  0  0  0  0  0  0  0  0  0  0  0
  -23.3233   33.1407  -43.2695 C   0  0  0  0  0  0  0  0  0  0  0  0
  -23.5232   31.4912  -43.0307 C   0  0  0  0  0  0  0  0  0  0  0  0
  -26.9182   34.7722  -45.4957 N   0  0  0  0  0  0  0  0  0  0  0  0
  -22.9865   36.3588  -47.3496 C   0  0  0  0  0  0  0  0  0  0  0  0
  -26.5205   36.4170  -46.2452 C   0  0  0  0  0  0  0  0  0  0  0  0
  -20.9253   33.0298  -44.1309 C   0  0  0  0  0  0  0  0  0  0  0  0
  -21.6682   35.8816  -47.3094 C   0  0  0  0  0  0  0  0  0  0  0  0
  -27.2646   32.4318  -43.4916 C   0  0  0  0  0  0  0  0  0  0  0  0
  -22.6155   34.7283  -45.2107 C   0  0  0  0  0  0  0  0  0  0  0  0
  -25.8498   32.6356  -43.4000 C   0  0  0  0  0  0  0  0  0  0  0  0
  -20.9862   31.7819  -43.1708 C   0  0  0  0  0  0  0  0  0  0  0  0
  -24.0176   35.8981  -46.7364 C   0  0  0  0  0  0  0  0  0  0  0  0
  -25.0494   31.5652  -43.0657 C   0  0  0  0  0  0  0  0  0  0  0  0
  1  6  2  0
  1 24  1  0
  2 20  1  0
  2 23  2  0
  3 18  1  0
  3 20  2  0
  4  8  2  0
  5 12  1  0
  5 17  1  0
  5 20  1  0
  6 11  1  0
  7  8  1  0
  7 19  1  0
  8 14  1  0
  9 16  2  0
  9 23  1  0
 10 13  1  0
 10 22  1  0
 11 19  2  0
 12 13  1  0
 13 24  1  0
 15 18  1  0
 15 23  1  0
 17 22  1  0
 19 21  1  0
 21 24  2  0
M  END
>  <SMILES>  (1) 
C=CC1=CC(C2CCCC(c3cccc(CC(N)=O)c3)C2)=CCC1

>  <QED>  (1) 
0.830

>  <SA>  (1) 
0.700

>  <Vina_Dock>  (1) 
-13.836

>  <Vina_ScoreOnly>  (1) 
-12.685

>  <Vina_Minimize>  (1) 
-10.536

>  <Molecule_Index>  (1) 
10

$$$$
